*Heading
** Job name: Gaussian_HSM3D_200C Model name: Laser_Welding
** Generated by: Abaqus/CAE 2024
*Preprint, echo=NO, model=NO, history=NO, contact=NO
**
** PARTS
**
*Part, name=Part-1
*End Part
**  
**
** ASSEMBLY
**
*Assembly, name=Assembly
**  
*Instance, name=Part-1-1, part=Part-1
       -0.03,      -0.0015,           0.
*Node
      1, 0.0234999992,           0.,           0.
      2, 0.0234999992,           0., 0.0299999993
      3,           0.,           0., 0.0299999993
      4,           0.,           0.,           0.
      5, 0.0234999992, 0.00150000001, 0.0299999993
      6,           0., 0.00150000001, 0.0299999993
      7,           0., 0.00150000001,           0.
      8, 0.0234999992, 0.00150000001,           0.
      9, 0.0299999993, 0.00150000001, 0.0299999993
     10, 0.0299999993,           0., 0.0299999993
     11, 0.0299999993,           0.,           0.
     12, 0.0299999993, 0.00150000001,           0.
     13, 0.0234999992,           0., 0.000500000024
     14, 0.0234999992,           0., 0.00100000005
     15, 0.0234999992,           0., 0.00150000001
     16, 0.0234999992,           0., 0.00200000009
     17, 0.0234999992,           0., 0.00249999994
     18, 0.0234999992,           0., 0.00300000003
     19, 0.0234999992,           0., 0.00350000011
     20, 0.0234999992,           0., 0.00400000019
** ... 9252 like lines cut
*Element, type=C3D8T
   1,  344, 3325, 5143, 3233,    1,   13,  519,  176
   2, 3325, 3326, 5144, 5143,   13,   14,  520,  519
   3, 3326, 3327, 5145, 5144,   14,   15,  521,  520
   4, 3327, 3328, 5146, 5145,   15,   16,  522,  521
   5, 3328, 3329, 5147, 5146,   16,   17,  523,  522
   6, 3329, 3330, 5148, 5147,   17,   18,  524,  523
   7, 3330, 3331, 5149, 5148,   18,   19,  525,  524
   8, 3331, 3332, 5150, 5149,   19,   20,  526,  525
   9, 3332, 3333, 5151, 5150,   20,   21,  527,  526
  10, 3333, 3334, 5152, 5151,   21,   22,  528,  527
  11, 3334, 3335, 5153, 5152,   22,   23,  529,  528
  12, 3335, 3336, 5154, 5153,   23,   24,  530,  529
  13, 3336, 3337, 5155, 5154,   24,   25,  531,  530
  14, 3337, 3338, 5156, 5155,   25,   26,  532,  531
  15, 3338, 3339, 5157, 5156,   26,   27,  533,  532
  16, 3339, 3340, 5158, 5157,   27,   28,  534,  533
  17, 3340, 3341, 5159, 5158,   28,   29,  535,  534
  18, 3341, 3342, 5160, 5159,   29,   30,  536,  535
  19, 3342, 3343, 5161, 5160,   30,   31,  537,  536
  20, 3343, 3344, 5162, 5161,   31,   32,  538,  537
** ... 6640 like lines cut
*Nset, nset=Set-1, generate
    1,  9272,     1
*Elset, elset=Set-1, generate
    1,  6660,     1
** Section: ss
*Solid Section, elset=Set-1, material=SS304
,
*End Instance
**  
*Instance, name=Part-1-2, part=Part-1
          0.,      -0.0015,           0.
*Node
      1, 0.00650000013,           0.,           0.
      2, 0.00650000013,           0., 0.0299999993
      3,           0.,           0., 0.0299999993
      4,           0.,           0.,           0.
      5, 0.00650000013, 0.00150000001, 0.0299999993
      6,           0., 0.00150000001, 0.0299999993
      7,           0., 0.00150000001,           0.
      8, 0.00650000013, 0.00150000001,           0.
      9, 0.0299999993, 0.00150000001, 0.0299999993
     10, 0.0299999993,           0., 0.0299999993
     11, 0.0299999993,           0.,           0.
     12, 0.0299999993, 0.00150000001,           0.
     13, 0.00650000013,           0., 0.000500000024
     14, 0.00650000013,           0., 0.00100000005
     15, 0.00650000013,           0., 0.00150000001
     16, 0.00650000013,           0., 0.00200000009
     17, 0.00650000013,           0., 0.00249999994
     18, 0.00650000013,           0., 0.00300000003
     19, 0.00650000013,           0., 0.00350000011
     20, 0.00650000013,           0., 0.00400000019
** ... 9252 like lines cut
*Element, type=C3D8T
   1,  300, 1983, 5143, 1935,    1,   13,  519,  154
   2, 1983, 1984, 5144, 5143,   13,   14,  520,  519
   3, 1984, 1985, 5145, 5144,   14,   15,  521,  520
   4, 1985, 1986, 5146, 5145,   15,   16,  522,  521
   5, 1986, 1987, 5147, 5146,   16,   17,  523,  522
   6, 1987, 1988, 5148, 5147,   17,   18,  524,  523
   7, 1988, 1989, 5149, 5148,   18,   19,  525,  524
   8, 1989, 1990, 5150, 5149,   19,   20,  526,  525
   9, 1990, 1991, 5151, 5150,   20,   21,  527,  526
  10, 1991, 1992, 5152, 5151,   21,   22,  528,  527
  11, 1992, 1993, 5153, 5152,   22,   23,  529,  528
  12, 1993, 1994, 5154, 5153,   23,   24,  530,  529
  13, 1994, 1995, 5155, 5154,   24,   25,  531,  530
  14, 1995, 1996, 5156, 5155,   25,   26,  532,  531
  15, 1996, 1997, 5157, 5156,   26,   27,  533,  532
  16, 1997, 1998, 5158, 5157,   27,   28,  534,  533
  17, 1998, 1999, 5159, 5158,   28,   29,  535,  534
  18, 1999, 2000, 5160, 5159,   29,   30,  536,  535
  19, 2000, 2001, 5161, 5160,   30,   31,  537,  536
  20, 2001, 2002, 5162, 5161,   31,   32,  538,  537
** ... 6640 like lines cut
*Nset, nset=Set-1, generate
    1,  9272,     1
*Elset, elset=Set-1, generate
    1,  6660,     1
** Section: ss
*Solid Section, elset=Set-1, material=SS304
,
*End Instance
**  
*Nset, nset=Set-4, instance=Part-1-1
    1,    2,    5,    8,    9,   10,   11,   12,   13,   14,   15,   16,   17,   18,   19,   20
   21,   22,   23,   24,   25,   26,   27,   28,   29,   30,   31,   32,   33,   34,   35,   36
   37,   38,   39,   40,   41,   42,   43,   44,   45,   46,   47,   48,   49,   50,   51,   52
   53,   54,   55,   56,   57,   58,   59,   60,   61,   62,   63,   64,   65,   66,   67,   68
   69,   70,   71,  177,  178,  179,  180,  181,  182,  183,  184,  185,  186,  187,  188,  189
  190,  191,  192,  193,  194,  195,  196,  197,  198,  199,  200,  201,  202,  203,  204,  205
  206,  207,  208,  209,  210,  211,  212,  213,  214,  215,  216,  217,  218,  219,  220,  221
  222,  223,  224,  225,  226,  227,  228,  229,  230,  231,  232,  233,  234,  235,  343,  344
  347,  348,  349,  350,  351,  352,  353,  354,  355,  356,  357,  358,  359,  360,  361,  362
  363,  364,  365,  366,  367,  368,  369,  370,  371,  372,  373,  374,  375,  376,  377,  378
  379,  380,  381,  382,  383,  384,  385,  386,  387,  388,  389,  390,  391,  392,  393,  394
  395,  396,  397,  398,  399,  400,  401,  402,  403,  404,  405,  406,  407,  408,  409,  410
  411,  412,  413,  414,  415,  416,  417,  418,  419,  420,  421,  422,  423,  424,  425,  426
  427,  428,  429,  430,  431,  432,  433,  434,  435,  436,  437,  438,  439,  440,  441,  442
  443,  444,  445,  446,  447,  448,  449,  450,  451,  452,  453,  454,  455,  456,  457,  458
  459,  460,  461,  462,  463,  464,  465,  466,  467,  468,  469,  470,  471,  472,  473,  474
  475,  476,  477,  478,  479,  480,  481,  482,  483,  484,  485,  486,  487,  488,  489,  490
  491,  492,  493,  494,  495,  496,  497,  498,  499,  500,  501,  502,  503,  504,  505,  506
  507,  508,  509,  510,  511,  512,  513,  514,  515,  516,  517,  518, 3325, 3326, 3327, 3328
 3329, 3330, 3331, 3332, 3333, 3334, 3335, 3336, 3337, 3338, 3339, 3340, 3341, 3342, 3343, 3344
** ... 194 like lines cut
*Nset, nset=Set-4, instance=Part-1-2
    1,    2,    3,    4,    5,    6,    7,    8,   13,   14,   15,   16,   17,   18,   19,   20
   21,   22,   23,   24,   25,   26,   27,   28,   29,   30,   31,   32,   33,   34,   35,   36
   37,   38,   39,   40,   41,   42,   43,   44,   45,   46,   47,   48,   49,   50,   51,   52
   53,   54,   55,   56,   57,   58,   59,   60,   61,   62,   63,   64,   65,   66,   67,   68
   69,   70,   71,   72,   73,   74,   75,   76,   77,   78,   79,   80,   81,   82,   83,   84
   85,   86,   87,   88,   89,   90,   91,   92,   93,   94,   95,   96,   97,   98,   99,  100
  101,  102,  103,  104,  105,  106,  107,  108,  109,  110,  111,  112,  113,  114,  115,  116
  117,  118,  119,  120,  121,  122,  123,  124,  125,  126,  127,  128,  129,  130,  131,  132
  133,  134,  135,  136,  137,  138,  139,  140,  141,  142,  143,  144,  145,  146,  147,  148
  149,  150,  151,  152,  153,  154,  155,  156,  157,  158,  159,  160,  161,  162,  163,  164
  165,  166,  167,  168,  169,  170,  171,  172,  173,  174,  175,  176,  177,  178,  179,  180
  181,  182,  183,  184,  185,  186,  187,  188,  189,  190,  191,  192,  193,  194,  195,  196
  197,  198,  199,  200,  201,  202,  203,  204,  205,  206,  207,  208,  209,  210,  211,  212
  213,  214,  215,  216,  217,  218,  219,  220,  221,  222,  223,  224,  225,  226,  227,  228
  229,  230,  231,  232,  233,  234,  235,  236,  237,  238,  239,  240,  241,  242,  243,  244
  245,  246,  247,  248,  249,  250,  251,  252,  253,  254,  255,  256,  257,  258,  259,  260
  261,  262,  263,  264,  265,  266,  267,  268,  269,  270,  271,  272,  273,  274,  275,  276
  277,  278,  279,  280,  281,  282,  283,  284,  285,  286,  287,  288,  289,  290,  291,  292
  293,  294,  295,  296,  297,  298,  299,  300,  301,  302,  303,  304,  519,  520,  521,  522
  523,  524,  525,  526,  527,  528,  529,  530,  531,  532,  533,  534,  535,  536,  537,  538
** ... 194 like lines cut
*Elset, elset=Set-4, instance=Part-1-1, generate
 4321,  6660,     1
*Elset, elset=Set-4, instance=Part-1-2, generate
    1,  2340,     1
*Nset, nset=Set-5, instance=Part-1-1
    3,    4,    6,    7,   95,   96,   97,   98,   99,  100,  101,  102,  103,  104,  105,  106
  107,  108,  109,  110,  111,  112,  113,  114,  115,  116,  117,  118,  119,  120,  121,  122
  123,  124,  125,  126,  127,  128,  129,  130,  131,  132,  133,  134,  135,  136,  137,  138
  139,  140,  141,  142,  143,  144,  145,  146,  147,  148,  149,  150,  151,  152,  153,  259
  260,  261,  262,  263,  264,  265,  266,  267,  268,  269,  270,  271,  272,  273,  274,  275
  276,  277,  278,  279,  280,  281,  282,  283,  284,  285,  286,  287,  288,  289,  290,  291
  292,  293,  294,  295,  296,  297,  298,  299,  300,  301,  302,  303,  304,  305,  306,  307
  308,  309,  310,  311,  312,  313,  314,  315,  316,  317,  341,  342,  345,  346, 3443, 3444
 3445, 3446, 3447, 3448, 3449, 3450, 3451, 3452, 3453, 3454, 3455, 3456, 3457, 3458, 3459, 3460
 3461, 3462, 3463, 3464, 3465, 3466, 3467, 3468, 3469, 3470, 3471, 3472, 3473, 3474, 3475, 3476
 3477, 3478, 3479, 3480, 3481, 3482, 3483, 3484, 3485, 3486, 3487, 3488, 3489, 3490, 3491, 3492
 3493, 3494, 3495, 3496, 3497, 3498, 3499, 3500, 3501, 3502, 3503, 3504, 3505, 3506, 3507, 3508
 3509, 3510, 3511, 3512, 3513, 3514, 3515, 3516, 3517, 3518, 3519, 3520, 3521, 3522, 3523, 3524
 3525, 3526, 3527, 3528, 3529, 3530, 3531, 3532, 3533, 3534, 3535, 3536, 3537, 3538, 3539, 3540
 3541, 3542, 3543, 3544, 3545, 3546, 3547, 3548, 3549, 3550, 3551, 3552, 3553, 3554, 3555, 3556
 3557, 3558, 3559, 3560
*Nset, nset=Set-5, instance=Part-1-2
    9,   10,   11,   12,  305,  306,  307,  308,  309,  310,  311,  312,  313,  314,  315,  316
  317,  318,  319,  320,  321,  322,  323,  324,  325,  326,  327,  328,  329,  330,  331,  332
  333,  334,  335,  336,  337,  338,  339,  340,  341,  342,  343,  344,  345,  346,  347,  348
  349,  350,  351,  352,  353,  354,  355,  356,  357,  358,  359,  360,  361,  362,  363,  364
  365,  366,  367,  368,  369,  370,  371,  372,  373,  374,  375,  376,  377,  378,  379,  380
  381,  382,  383,  384,  385,  386,  387,  388,  389,  390,  391,  392,  393,  394,  395,  396
  397,  398,  399,  400,  401,  402,  403,  404,  405,  406,  407,  408,  409,  410,  411,  412
  413,  414,  415,  416,  417,  418,  419,  420,  421,  422,  423,  424,  425,  426, 2219, 2220
 2221, 2222, 2223, 2224, 2225, 2226, 2227, 2228, 2229, 2230, 2231, 2232, 2233, 2234, 2235, 2236
 2237, 2238, 2239, 2240, 2241, 2242, 2243, 2244, 2245, 2246, 2247, 2248, 2249, 2250, 2251, 2252
 2253, 2254, 2255, 2256, 2257, 2258, 2259, 2260, 2261, 2262, 2263, 2264, 2265, 2266, 2267, 2268
 2269, 2270, 2271, 2272, 2273, 2274, 2275, 2276, 2277, 2278, 2279, 2280, 2281, 2282, 2283, 2284
 2285, 2286, 2287, 2288, 2289, 2290, 2291, 2292, 2293, 2294, 2295, 2296, 2297, 2298, 2299, 2300
 2301, 2302, 2303, 2304, 2305, 2306, 2307, 2308, 2309, 2310, 2311, 2312, 2313, 2314, 2315, 2316
 2317, 2318, 2319, 2320, 2321, 2322, 2323, 2324, 2325, 2326, 2327, 2328, 2329, 2330, 2331, 2332
 2333, 2334, 2335, 2336
*Elset, elset=Set-5, instance=Part-1-1
 1381, 1382, 1383, 1384, 1385, 1386, 1387, 1388, 1389, 1390, 1391, 1392, 1393, 1394, 1395, 1396
 1397, 1398, 1399, 1400, 1401, 1402, 1403, 1404, 1405, 1406, 1407, 1408, 1409, 1410, 1411, 1412
 1413, 1414, 1415, 1416, 1417, 1418, 1419, 1420, 1421, 1422, 1423, 1424, 1425, 1426, 1427, 1428
 1429, 1430, 1431, 1432, 1433, 1434, 1435, 1436, 1437, 1438, 1439, 1440, 2821, 2822, 2823, 2824
 2825, 2826, 2827, 2828, 2829, 2830, 2831, 2832, 2833, 2834, 2835, 2836, 2837, 2838, 2839, 2840
 2841, 2842, 2843, 2844, 2845, 2846, 2847, 2848, 2849, 2850, 2851, 2852, 2853, 2854, 2855, 2856
 2857, 2858, 2859, 2860, 2861, 2862, 2863, 2864, 2865, 2866, 2867, 2868, 2869, 2870, 2871, 2872
 2873, 2874, 2875, 2876, 2877, 2878, 2879, 2880, 4261, 4262, 4263, 4264, 4265, 4266, 4267, 4268
 4269, 4270, 4271, 4272, 4273, 4274, 4275, 4276, 4277, 4278, 4279, 4280, 4281, 4282, 4283, 4284
 4285, 4286, 4287, 4288, 4289, 4290, 4291, 4292, 4293, 4294, 4295, 4296, 4297, 4298, 4299, 4300
 4301, 4302, 4303, 4304, 4305, 4306, 4307, 4308, 4309, 4310, 4311, 4312, 4313, 4314, 4315, 4316
 4317, 4318, 4319, 4320
*Elset, elset=Set-5, instance=Part-1-2, generate
 2341,  2520,     1
*Nset, nset=Set-6, instance=Part-1-1, generate
    1,  9272,     1
*Nset, nset=Set-6, instance=Part-1-2, generate
    1,  9272,     1
*Elset, elset=Set-6, instance=Part-1-1, generate
    1,  6660,     1
*Elset, elset=Set-6, instance=Part-1-2, generate
    1,  6660,     1
*Nset, nset=Set-7, instance=Part-1-1
   1,   2,   3,   4,   5,   6,   7,   8,  72,  73,  74,  75,  76,  77,  78,  79
  80,  81,  82,  83,  84,  85,  86,  87,  88,  89,  90,  91,  92,  93,  94, 154
 155, 156, 157, 158, 159, 160, 161, 162, 163, 164, 165, 166, 167, 168, 169, 170
 171, 172, 173, 174, 175, 176, 236, 237, 238, 239, 240, 241, 242, 243, 244, 245
 246, 247, 248, 249, 250, 251, 252, 253, 254, 255, 256, 257, 258, 318, 319, 320
 321, 322, 323, 324, 325, 326, 327, 328, 329, 330, 331, 332, 333, 334, 335, 336
 337, 338, 339, 340
*Nset, nset=Set-7, instance=Part-1-2
   1,   2,   5,   8,   9,  10,  11,  12, 427, 428, 429, 430, 431, 432, 433, 434
 435, 436, 437, 438, 439, 440, 441, 442, 443, 444, 445, 446, 447, 448, 449, 450
 451, 452, 453, 454, 455, 456, 457, 458, 459, 460, 461, 462, 463, 464, 465, 466
 467, 468, 469, 470, 471, 472, 473, 474, 475, 476, 477, 478, 479, 480, 481, 482
 483, 484, 485, 486, 487, 488, 489, 490, 491, 492, 493, 494, 495, 496, 497, 498
 499, 500, 501, 502, 503, 504, 505, 506, 507, 508, 509, 510, 511, 512, 513, 514
 515, 516, 517, 518
*Elset, elset=Set-7, instance=Part-1-1
    1,   60,   61,  120,  121,  180,  181,  240,  241,  300,  301,  360,  361,  420,  421,  480
  481,  540,  541,  600,  601,  660,  661,  720,  721,  780,  781,  840,  841,  900,  901,  960
  961, 1020, 1021, 1080, 1081, 1140, 1141, 1200, 1201, 1260, 1261, 1320, 1321, 1380, 1381, 1440
 2881, 2940, 2941, 3000, 3001, 3060, 3061, 3120, 3121, 3180, 3181, 3240, 3241, 3300, 3301, 3360
 3361, 3420, 3421, 3480, 3481, 3540, 3541, 3600, 3601, 3660, 3661, 3720, 3721, 3780, 3781, 3840
 3841, 3900, 3901, 3960, 3961, 4020, 4021, 4080, 4081, 4140, 4141, 4200, 4201, 4260, 4261, 4320
*Elset, elset=Set-7, instance=Part-1-2
 2341, 2343, 2518, 2520, 2521, 2523, 2698, 2700, 2701, 2703, 2878, 2880, 2881, 2883, 3058, 3060
 3061, 3063, 3238, 3240, 3241, 3243, 3418, 3420, 3421, 3423, 3598, 3600, 3601, 3603, 3778, 3780
 3781, 3783, 3958, 3960, 3961, 3963, 4138, 4140, 4141, 4143, 4318, 4320, 4321, 4323, 4498, 4500
 4501, 4503, 4678, 4680, 4681, 4683, 4858, 4860, 4861, 4863, 5038, 5040, 5041, 5043, 5218, 5220
 5221, 5223, 5398, 5400, 5401, 5403, 5578, 5580, 5581, 5583, 5758, 5760, 5761, 5763, 5938, 5940
 5941, 5943, 6118, 6120, 6121, 6123, 6298, 6300, 6301, 6303, 6478, 6480, 6481, 6483, 6658, 6660
*Elset, elset=_CP-1-Part-1-1_S2, internal, instance=Part-1-1, generate
 4321,  4500,     1
*Surface, type=ELEMENT, name=CP-1-Part-1-1
_CP-1-Part-1-1_S2, S2
*Elset, elset=_CP-1-Part-1-2_S5, internal, instance=Part-1-2
  721,  722,  723,  724,  725,  726,  727,  728,  729,  730,  731,  732,  733,  734,  735,  736
  737,  738,  739,  740,  741,  742,  743,  744,  745,  746,  747,  748,  749,  750,  751,  752
  753,  754,  755,  756,  757,  758,  759,  760,  761,  762,  763,  764,  765,  766,  767,  768
  769,  770,  771,  772,  773,  774,  775,  776,  777,  778,  779,  780, 1501, 1502, 1503, 1504
 1505, 1506, 1507, 1508, 1509, 1510, 1511, 1512, 1513, 1514, 1515, 1516, 1517, 1518, 1519, 1520
 1521, 1522, 1523, 1524, 1525, 1526, 1527, 1528, 1529, 1530, 1531, 1532, 1533, 1534, 1535, 1536
 1537, 1538, 1539, 1540, 1541, 1542, 1543, 1544, 1545, 1546, 1547, 1548, 1549, 1550, 1551, 1552
 1553, 1554, 1555, 1556, 1557, 1558, 1559, 1560, 2281, 2282, 2283, 2284, 2285, 2286, 2287, 2288
 2289, 2290, 2291, 2292, 2293, 2294, 2295, 2296, 2297, 2298, 2299, 2300, 2301, 2302, 2303, 2304
 2305, 2306, 2307, 2308, 2309, 2310, 2311, 2312, 2313, 2314, 2315, 2316, 2317, 2318, 2319, 2320
 2321, 2322, 2323, 2324, 2325, 2326, 2327, 2328, 2329, 2330, 2331, 2332, 2333, 2334, 2335, 2336
 2337, 2338, 2339, 2340
*Surface, type=ELEMENT, name=CP-1-Part-1-2
_CP-1-Part-1-2_S5, S5
*Elset, elset=_Surf-1_S6, internal, instance=Part-1-1, generate
 4321,  6658,     3
*Elset, elset=_Surf-1_S6, internal, instance=Part-1-2, generate
 2341,  6658,     3
*Elset, elset=_Surf-1_S2, internal, instance=Part-1-1, generate
    1,  1440,     1
*Elset, elset=_Surf-1_S2, internal, instance=Part-1-2, generate
   1,  780,    1
*Elset, elset=_Surf-1_S1, internal, instance=Part-1-1, generate
 2881,  4320,     1
*Elset, elset=_Surf-1_S1, internal, instance=Part-1-2, generate
 1561,  2340,     1
*Elset, elset=_Surf-1_S4, internal, instance=Part-1-1, generate
 4323,  6660,     3
*Elset, elset=_Surf-1_S4, internal, instance=Part-1-2, generate
 2343,  6660,     3
*Surface, type=ELEMENT, name=Surf-1
_Surf-1_S6, S6
_Surf-1_S2, S2
_Surf-1_S4, S4
_Surf-1_S1, S1
*Elset, elset=_Surf-2_S6, internal, instance=Part-1-1, generate
 4321,  6658,     3
*Elset, elset=_Surf-2_S6, internal, instance=Part-1-2, generate
 2341,  6658,     3
*Elset, elset=_Surf-2_S2, internal, instance=Part-1-1, generate
    1,  1440,     1
*Elset, elset=_Surf-2_S2, internal, instance=Part-1-2, generate
   1,  780,    1
*Elset, elset=_Surf-2_S1, internal, instance=Part-1-1, generate
 2881,  4320,     1
*Elset, elset=_Surf-2_S1, internal, instance=Part-1-2, generate
 1561,  2340,     1
*Elset, elset=_Surf-2_S4, internal, instance=Part-1-1, generate
 4323,  6660,     3
*Elset, elset=_Surf-2_S4, internal, instance=Part-1-2, generate
 2343,  6660,     3
*Surface, type=ELEMENT, name=Surf-2
_Surf-2_S6, S6
_Surf-2_S2, S2
_Surf-2_S4, S4
_Surf-2_S1, S1
** Constraint: CP-1-Part-1-2-Part-1-1
*Tie, name=CP-1-Part-1-2-Part-1-1, adjust=yes, type=SURFACE TO SURFACE
CP-1-Part-1-1, CP-1-Part-1-2
*End Assembly
** 
** MATERIALS
** 
** Stainless Steel 304 Grade
*Material, name=SS304
*Conductivity
 14.6,   0.
 15.1, 100.
 16.1, 200.
  18., 400.
 20.8, 600.
 23.9, 800.
  28.,1000.
 33.7,1300.
  39.,1400.
  70.,1500.
 100.,2000.
*Density
7900.,   0.
7850., 100.
7800., 200.
7790., 400.
7780., 600.
7750., 800.
7700.,1000.
7680.,1200.
7670.,1300.
7650.,1400.
7645.,1500.
*Elastic
 1.98e+11, 0.294,    0.
 1.93e+11, 0.295,  100.
 1.85e+11, 0.301,  200.
 1.67e+11, 0.318,  400.
 1.59e+11, 0.326,  600.
  1.5e+11,  0.33,  700.
 1.51e+11, 0.333,  800.
    1e+11, 0.336, 1000.
    6e+10, 0.339, 1200.
  1.5e+10,  0.36, 1400.
    1e+10, 0.388, 1500.
*Expansion
  1.1e-05,   0.
 1.15e-05, 100.
 1.25e-05, 200.
  1.4e-05, 400.
  1.6e-05, 600.
  1.7e-05, 800.
  1.7e-05,1000.
  1.7e-05,1200.
  1.7e-05,1400.
  1.7e-05,1500.
*Latent Heat
270000.,1400.,1454.
*Plastic
 4.56e+08,   0.,   0.
 3.18e+08,   0., 100.
 2.86e+08,   0., 200.
 1.55e+08,   0., 400.
 1.49e+08,   0., 600.
  9.1e+07,   0., 800.
  5.5e+07,   0.,1000.
  2.5e+07,   0.,1200.
  1.5e+07,   0.,1400.
    1e+07,   0.,1500.
*Specific Heat
 462.,   0.
 496., 100.
 512., 200.
 600., 400.
 800., 600.
1200., 800.
 850.,1000.
 800.,1200.
1000.,1400.
1200.,1450.
1000.,1500.
** 
** PHYSICAL CONSTANTS
** 
*Physical Constants, absolute zero=-273.15, stefan boltzmann=5.669e-08
** 
** BOUNDARY CONDITIONS
** 
** Name: BC-1 Type: Displacement/Rotation
*Boundary
Set-5, 1, 1
Set-5, 2, 2
Set-5, 3, 3
** 
** PREDEFINED FIELDS
** 
** Name: Predefined Field-1   Type: Temperature
*Initial Conditions, type=TEMPERATURE
Set-6, 200.
** ----------------------------------------------------------------
** 
** STEP: Welding
** 
*Step, name=Welding, nlgeom=YES, inc=10000
*Coupled Temperature-displacement, creep=none, deltmx=5000.
0.01, 1., 1e-07, 0.5
** 
** LOADS
** 
** Name: Load-1   Type: Body heat flux
*Dflux
Set-4, BFNU, 1.
** 
** INTERACTIONS
** 
** Interaction: Int-1
*Sfilm
Surf-1, F, 25., 15.
** Interaction: Int-2
*Sradiate
Surf-2, R, 25., 0.6
** 
** OUTPUT REQUESTS
** 
*Restart, write, frequency=0
** 
** FIELD OUTPUT: F-Output-1
** 
*Output, field, variable=PRESELECT, frequency=5
** 
** HISTORY OUTPUT: H-Output-1
** 
*Output, history, variable=PRESELECT
*End Step
** ----------------------------------------------------------------
** 
** STEP: Cooling
** 
*Step, name=Cooling, nlgeom=YES, inc=1000
*Coupled Temperature-displacement, creep=none, deltmx=5000.
0.1, 600., 1e-07, 60.
** 
** LOADS
** 
** Name: Load-1   Type: Body heat flux
*Dflux, op=NEW
** 
** OUTPUT REQUESTS
** 
*Restart, write, frequency=0
** 
** FIELD OUTPUT: F-Output-1
** 
*Output, field, variable=PRESELECT, frequency=5
** 
** HISTORY OUTPUT: H-Output-1
** 
*Output, history, variable=PRESELECT
*End Step
